src/examples/case14_twoarea/two_area_08pulim_1_1/results/res_branch_2.csv
branch,from_bus,to_bus,X,B,G,Bfr,Bto,p_from,p_to,q_from,q_to,p_loss,q_loss,s_from,s_to,rate_a,ang_deg,angmin,angmax
7,4,5,0.07018333333333335,-13.750861129582134,2.615635185180549,0.0,0.0,-0.19227782665924675,0.19284884543242914,-0.09383182798529655,0.09683377561809385,0.0005710187731823857,0.0030019476327973055,0.21395133691535,0.21579494267724694,0.8,-0.649828462537282,-60.0001403060998,60.0001403060998
4,2,4,0.2938666666666667,-3.274849999726149,0.6475778135801491,0.028333333333333335,0.028333333333333335,0.3599854062417306,-0.35297740822012763,-0.062100216121962606,0.0365405798744158,0.007007998021602957,-0.025559636247546806,0.36530251785255774,0.35486372693099694,0.8,5.737519359736446,-60.0001403060998,60.0001403060998
2,1,5,0.37173333333333336,-2.634446441553089,0.3829065851070123,0.041,0.041,0.4732179647360794,-0.4624373698069173,-0.030053788655623262,0.013520831746211083,0.010780594929162113,-0.01653295690941218,0.47417135337503696,0.46263498990570195,0.8,9.106287555682249,-60.0001403060998,60.0001403060998
3,2,3,0.32995,-2.9705137433791546,0.423047252012082,0.0365,0.0365,0.297221186179614,-0.2933849556607221,-0.03220597855495267,-0.0190322434583652,0.0038362305188919255,-0.051238222013317875,0.2989609649581344,0.2940016300959951,0.8,5.236142906313551,-60.0001403060998,60.0001403060998
5,2,5,0.28980000000000006,-3.32235273589815,0.6528916090731525,0.028833333333333336,0.028833333333333336,0.32072787054370594,-0.3151368982813762,-0.08978171978389587,0.05562220077894161,0.005590972262329741,-0.034159519004954265,0.33305723855045427,0.320007959085238,0.8,5.087690897199164,-60.0001403060998,60.0001403060998
6,3,4,0.28505,-3.324436966625986,0.7815138436541214,0.010666666666666668,0.010666666666666668,0.026658802400279916,-0.0265723027465626,-0.03691630818796506,0.014572410532322564,8.649965371731669e-5,-0.0223438976556425,0.04553576128325941,0.0303058149861957,0.8,0.5013764534228948,-60.0001403060998,60.0001403060998
1,1,2,0.09861666666666669,-9.763222778777191,1.918653954227162,0.044000000000000004,0.044000000000000004,0.7994352884266616,-0.7883030726004019,0.030053778707952623,-0.07048546676768692,0.011132215826259673,-0.0404316880597343,0.8000000062477789,0.7914479991109291,0.8,4.018596658483084,-60.0001403060998,60.0001403060998
